
Circuit: *

Doing analysis at TEMP = 27.000000 and TNOM = 27.000000


No. of Data Rows : 1
************************************
Operating point
************************************
op_TAB
@gb[i] = -1.95655e-04
@id[current] = 1.025026e-03
@r1[i] = 1.865537e-04
@r2[i] = 1.956553e-04
@r3[i] = -9.10165e-06
@r4[i] = -1.16975e-03
@r5[i] = -1.22068e-03
@r6[i] = 9.831960e-04
@r7[i] = 9.831960e-04
v(1) = 5.048640e+00
v(2) = 4.860629e+00
v(3) = 4.468710e+00
v(4) = 4.888344e+00
v(5) = 8.679973e+00
v(6) = -2.02627e+00
v(7) = -3.01571e+00
v(8) = -3.01571e+00
hc#branch = 4.183019e-05
va#branch = -1.86554e-04
vzero#branch = 9.831960e-04
op_END
ngspice-31 done
