
Circuit: *

Doing analysis at TEMP = 27.000000 and TNOM = 27.000000



No. of Data Rows : 1
************************************
Operating point
************************************
op_TAB
v(1) = 5.064003e+00
v(2) = 4.796768e+00
v(3) = 4.214280e+00
v(5) = 4.836582e+00
v(6) = 5.686007e+00
v(7) = -1.82628e+00
v(8) = -2.78294e+00
v(9) = -1.82628e+00
hvd#branch = -9.11517e-04
vic#branch = 9.115165e-04
vs#branch = -2.66711e-04
op_END
ngspice-26 done
