
Circuit: *

Doing analysis at TEMP = 27.000000 and TNOM = 27.000000



No. of Data Rows : 1
********************************************
Transient analysis
********************************************
Doing analysis at TEMP = 27.000000 and TNOM = 27.000000


Initial Transient Solution
--------------------------

Node                                   Voltage
----                                   -------
1                                            0
2                                 -5.69562e-13
3                                 -1.81103e-12
5                                 -4.84707e-13
6                                      8.46895
7                                  1.83025e-13
9                                  1.83025e-13
8                                  2.78897e-13
hvd#branch                          0.00278897
vic#branch                        -9.13493e-17
vs#branch                         -5.68446e-16



No. of Data Rows : 2008

The file "natural.ps" may be printed on a postscript printer.
natural_FIG
ngspice-26 done
