
Circuit: *

Doing analysis at TEMP = 27.000000 and TNOM = 27.000000



No. of Data Rows : 1
********************************************
Transient analysis
********************************************
Doing analysis at TEMP = 27.000000 and TNOM = 27.000000


Initial Transient Solution
--------------------------

Node                                   Voltage
----                                   -------
1                                            0
2                                 -5.20991e-13
3                                 -1.60703e-12
5                                 -4.44191e-13
6                                      8.51179
7                                  1.84122e-13
9                                  1.84122e-13
8                                  2.74029e-13
hvd#branch                          0.00274029
vic#branch                        -8.93405e-17
vs#branch                         -5.16953e-16



No. of Data Rows : 2008

The file "total.ps" may be printed on a postscript printer.
total_FIG
********************************************
Frequency analysis
********************************************
Doing analysis at TEMP = 27.000000 and TNOM = 27.000000



No. of Data Rows : 71

The file "magnitude.ps" may be printed on a postscript printer.
magnitude_FIG

The file "phase.ps" may be printed on a postscript printer.
phase_FIG
ngspice-26 done
