
Circuit: *

Doing analysis at TEMP = 27.000000 and TNOM = 27.000000



No. of Data Rows : 1
************************************
Operating point
************************************
op_TAB
v(1) = 0.000000e+00
v(2) = 6.013315e-15
v(3) = 1.912047e-14
v(5) = 5.117434e-15
v(6) = 8.468946e+00
v(7) = -2.07808e-15
v(8) = -3.55271e-15
v(9) = -2.07808e-15
hvd#branch = 2.788975e-03
vic#branch = 1.037192e-18
vs#branch = 6.001533e-18
vx#branch = -2.78897e-03
op_END
ngspice-26 done
