
Circuit: *

Doing analysis at TEMP = 27.000000 and TNOM = 27.000000


No. of Data Rows : 1
************************************
Operating point
************************************
op_TAB
@gib[i] = 4.336393e-18
@r1[i] = -4.13467e-18
@r2[i] = -4.33639e-18
@r3[i] = -2.01724e-19
@r4[i] = 8.501418e-19
@r5[i] = 2.740295e-03
@r6[i] = 8.673617e-19
@r7[i] = -1.75404e-18
v(1) = 0.000000e+00
v(2) = 4.166970e-15
v(3) = 1.285325e-14
v(5) = 3.552714e-15
v(6) = 8.511786e+00
v(7) = -1.78755e-15
v(8) = -3.55271e-15
v(9) = -1.78755e-15
hvd#branch = 2.740295e-03
vic#branch = 8.673617e-19
vs#branch = 4.134670e-18
vx#branch = -2.74029e-03
op_END
ngspice-31 done
