
Circuit: *

Doing analysis at TEMP = 27.000000 and TNOM = 27.000000



No. of Data Rows : 1
************************************
Operating point
************************************
op_TAB
v(1) = 0.000000e+00
v(2) = 1.662312e-15
v(3) = 5.127494e-15
v(5) = 1.417269e-15
v(6) = 8.511786e+00
v(7) = -8.18711e-16
v(8) = -1.77636e-15
v(9) = -8.18711e-16
hvd#branch = 2.740295e-03
vic#branch = 3.972585e-19
vs#branch = 1.649426e-18
vx#branch = -2.74029e-03
op_END
ngspice-26 done
