
Circuit: *

Doing analysis at TEMP = 27.000000 and TNOM = 27.000000



No. of Data Rows : 1
************************************
Operating point
************************************
op_TAB
v(1) = 5.048640e+00
v(2) = 4.860629e+00
v(3) = 4.468710e+00
v(4) = 4.888344e+00
v(5) = 8.679973e+00
v(6) = -2.02627e+00
v(7) = -3.01571e+00
v(8) = -3.01571e+00
hc#branch = 4.183019e-05
va#branch = -1.86554e-04
vzero#branch = 9.831960e-04
op_END
ngspice-26 done
