
Circuit: .options savecurrents

********************************************
TRANSIENT ANALYSIS
********************************************
Doing analysis at TEMP = 27.000000 and TNOM = 27.000000


Initial Transient Solution
--------------------------

Node                                   Voltage
----                                   -------
vcc                                         12
in                                           0
in2                                          0
base                                   1.87891
coll                                   7.21465
emit                                   1.18419
emit2                                  8.03361
out                                          0
vin#branch                                   0
vcc#branch                          -0.0847714



No. of Data Rows : 1008
OP_TAB
vcc[0] = 1.200000e+01
in[0] = 0.000000e+00
in2[0] = 0.000000e+00
base[0] = 1.878914e+00
coll[0] = 7.214649e+00
emit[0] = 1.184188e+00
emit2[0] = 8.033609e+00
out[0] = 0.000000e+00
OP_END
ERROR: (internal)  This operation is not defined for display type printf.
Can't open viewport for graphics.

The file "comp.ps" may be printed on a postscript printer.
comp_FIG
********************************************
Frequency analysis
********************************************
Doing analysis at TEMP = 27.000000 and TNOM = 27.000000



No. of Data Rows : 71
ERROR: (internal)  This operation is not defined for display type printf.
Can't open viewport for graphics.
ERROR: (internal)  This operation is not defined for display type printf.
Can't open viewport for graphics.

The file "stage.ps" may be printed on a postscript printer.
stage_FIG
ERROR: (internal)  This operation is not defined for display type printf.
Can't open viewport for graphics.
ERROR: (internal)  This operation is not defined for display type printf.
Can't open viewport for graphics.

The file "output.ps" may be printed on a postscript printer.
output_FIG
top1                =  3.633626e+01 at=  6.309573e+03
top2                =  6.558629e+01 at=  6.309573e+03
lower               =  1.660299e+01
upper               =  2.474210e+06
gain1 = 3.633626e+01
gain2 = 6.558629e+01
lower = 1.660299e+01
upper = 2.474210e+06
bandwidth = 2.474193e+06
cost = 4.201458e+03
merit = 2.326271e+03
v(in2)[40]/vin#branch[40]/(-1000) = 8.359292e-01,-1.24473e-01
zi = 8.451457e-01
data_TAB
Gain  = 65.5863
Gain(dB) = 36.3363
Lower cut-off frequency = 16.603 Hz
Upper cut-off frequency = 2.47421E+06 Hz
Bandwidth = 2.47419E+06 Hz
Input impedance = 0.845146 kOhm
data_END
merit_TAB
cost = 4.201458e+03
merit = 2.326271e+03
merit_END
ngspice-26 done
