
Circuit: .options savecurrents

********************************************
Frequency analysis
********************************************
Doing analysis at TEMP = 27.000000 and TNOM = 27.000000



No. of Data Rows : 71
-v(out)[40]/vin#branch[40] = 8.187501e+00,4.192673e-01
zo = 8.198229e+00
outimp_TAB
Output impedance = 8.19823 Ohm
outimp_END
ngspice-26 done
