
Circuit: .options savecurrents

********************************************
TRANSIENT ANALYSIS
********************************************
Doing analysis at TEMP = 27.000000 and TNOM = 27.000000


Initial Transient Solution
--------------------------

Node                                   Voltage
----                                   -------
vcc                                         12
in                                           0
in2                                          0
base                                    2.3128
coll                                   6.25126
emit                                   1.60784
emit2                                  7.09246
out                                          0
vin#branch                                   0
vcc#branch                           -0.105498


No. of Data Rows : 1008
OP_TAB
vcc[0] = 1.200000e+01
in[0] = 0.000000e+00
in2[0] = 0.000000e+00
base[0] = 2.312800e+00
coll[0] = 6.251260e+00
emit[0] = 1.607836e+00
emit2[0] = 7.092462e+00
out[0] = 0.000000e+00
OP_END
ERROR: (internal)  This operation is not defined for display type printf.
Can't open viewport for graphics.

The file "comp.ps" may be printed on a postscript printer.
comp_FIG
********************************************
Frequency analysis
********************************************
Doing analysis at TEMP = 27.000000 and TNOM = 27.000000


No. of Data Rows : 71
ERROR: (internal)  This operation is not defined for display type printf.
Can't open viewport for graphics.
ERROR: (internal)  This operation is not defined for display type printf.
Can't open viewport for graphics.

The file "stage.ps" may be printed on a postscript printer.
stage_FIG
ERROR: (internal)  This operation is not defined for display type printf.
Can't open viewport for graphics.
ERROR: (internal)  This operation is not defined for display type printf.
Can't open viewport for graphics.

The file "output.ps" may be printed on a postscript printer.
output_FIG
top1                =  3.720193e+01 at=  6.309573e+03
top2                =  7.245972e+01 at=  6.309573e+03
lower               =  1.998764e+01
upper               =  2.324548e+06
gain1 = 3.720193e+01
gain2 = 7.245972e+01
lower = 1.998764e+01
upper = 2.324548e+06
bandwidth = 2.324528e+06
cost = 9.181358e+03
merit = 9.178316e+02
v(in2)[40]/vin#branch[40]/(-1000) = 6.279018e-01,-8.30122e-02
zi = 6.333654e-01
data_TAB
Gain  = 72.4597
Gain(dB) = 37.2019
Lower cut-off frequency = 19.9876 Hz
Upper cut-off frequency = 2.32455E+06 Hz
Bandwidth = 2.32453E+06 Hz
Input impedance = 0.633365 kOhm
data_END
merit_TAB
cost = 9.181358e+03
merit = 9.178316e+02
merit_END
ngspice-31 done
